# ElementalMaterials Au_FCC generated from the Cu.cF4 prototype (FCC) using a = 4.0789 A
data_Au
_symmetry_space_group_name_H-M   'P 1'
_cell_length_a   2.88421785
_cell_length_b   2.88421785
_cell_length_c   2.88421785
_cell_angle_alpha   60.00000000
_cell_angle_beta   60.00000000
_cell_angle_gamma   60.00000000
_symmetry_Int_Tables_number   1
_chemical_formula_structural   Au
_chemical_formula_sum   Au1
_cell_volume   16.9655984223
_cell_formula_units_Z   1
loop_
 _symmetry_equiv_pos_site_id
 _symmetry_equiv_pos_as_xyz
  1  'x, y, z'
loop_
 _atom_site_type_symbol
 _atom_site_label
 _atom_site_symmetry_multiplicity
 _atom_site_fract_x
 _atom_site_fract_y
 _atom_site_fract_z
 _atom_site_occupancy
  Au  Au1  1  0.000000  0.000000  0.000000  1
