# ElementalMaterials Bi_BCC generated from the W.cI2 prototype (BCC) using a = 3.800 A
data_Bi
_symmetry_space_group_name_H-M   'P 1'
_cell_length_a   3.29089653
_cell_length_b   3.29089653
_cell_length_c   3.29089653
_cell_angle_alpha   109.47122063
_cell_angle_beta   109.47122063
_cell_angle_gamma   109.47122063
_symmetry_Int_Tables_number   1
_chemical_formula_structural   Bi
_chemical_formula_sum   Bi1
_cell_volume   27.436
_cell_formula_units_Z   1
loop_
 _symmetry_equiv_pos_site_id
 _symmetry_equiv_pos_as_xyz
  1  'x, y, z'
loop_
 _atom_site_type_symbol
 _atom_site_label
 _atom_site_symmetry_multiplicity
 _atom_site_fract_x
 _atom_site_fract_y
 _atom_site_fract_z
 _atom_site_occupancy
  Bi  Bi1  1  0.000000  0.000000  0.000000  1
