# ElementalMaterials W_BCC generated from the W.cI2 prototype (BCC) using a = 3.1652 A
data_W
_symmetry_space_group_name_H-M   'P 1'
_cell_length_a   2.74114361
_cell_length_b   2.74114361
_cell_length_c   2.74114361
_cell_angle_alpha   109.47122063
_cell_angle_beta   109.47122063
_cell_angle_gamma   109.47122063
_symmetry_Int_Tables_number   1
_chemical_formula_structural   W
_chemical_formula_sum   W1
_cell_volume   15.8552639199
_cell_formula_units_Z   1
loop_
 _symmetry_equiv_pos_site_id
 _symmetry_equiv_pos_as_xyz
  1  'x, y, z'
loop_
 _atom_site_type_symbol
 _atom_site_label
 _atom_site_symmetry_multiplicity
 _atom_site_fract_x
 _atom_site_fract_y
 _atom_site_fract_z
 _atom_site_occupancy
  W  W1  1  0.000000  0.000000  0.000000  1
