# CompoundSemiconductors AlSb_ZB generated from the ZnS.cF8 prototype (ZB) using a = 6.1355 A
data_AlSb
_symmetry_space_group_name_H-M   'P 1'
_cell_length_a   4.33845366
_cell_length_b   4.33845366
_cell_length_c   4.33845366
_cell_angle_alpha   60.00000000
_cell_angle_beta   60.00000000
_cell_angle_gamma   60.00000000
_symmetry_Int_Tables_number   1
_chemical_formula_structural   AlSb
_chemical_formula_sum   'Al1 Sb1'
_cell_volume   57.7417430785
_cell_formula_units_Z   1
loop_
 _symmetry_equiv_pos_site_id
 _symmetry_equiv_pos_as_xyz
  1  'x, y, z'
loop_
 _atom_site_type_symbol
 _atom_site_label
 _atom_site_symmetry_multiplicity
 _atom_site_fract_x
 _atom_site_fract_y
 _atom_site_fract_z
 _atom_site_occupancy
  Al  Al1  1  0.000000  0.000000  0.000000  1
  Sb  Sb2  1  0.250000  0.250000  0.250000  1
