# CompoundSemiconductors GaP_ZB generated from the ZnS.cF8 prototype (ZB) using a = 5.4504 A
data_GaP
_symmetry_space_group_name_H-M   'P 1'
_cell_length_a   3.85401480
_cell_length_b   3.85401480
_cell_length_c   3.85401480
_cell_angle_alpha   60.00000000
_cell_angle_beta   60.00000000
_cell_angle_gamma   60.00000000
_symmetry_Int_Tables_number   1
_chemical_formula_structural   GaP
_chemical_formula_sum   'Ga1 P1'
_cell_volume   40.478567654
_cell_formula_units_Z   1
loop_
 _symmetry_equiv_pos_site_id
 _symmetry_equiv_pos_as_xyz
  1  'x, y, z'
loop_
 _atom_site_type_symbol
 _atom_site_label
 _atom_site_symmetry_multiplicity
 _atom_site_fract_x
 _atom_site_fract_y
 _atom_site_fract_z
 _atom_site_occupancy
  Ga  Ga1  1  0.000000  0.000000  0.000000  1
  P  P2  1  0.250000  0.250000  0.250000  1
