# CompoundSemiconductors MgS_RS generated from the NaCl.cF8 prototype (RS) using a = 5.1913 A
data_MgS
_symmetry_space_group_name_H-M   'P 1'
_cell_length_a   3.67080343
_cell_length_b   3.67080343
_cell_length_c   3.67080343
_cell_angle_alpha   60.00000000
_cell_angle_beta   60.00000000
_cell_angle_gamma   60.00000000
_symmetry_Int_Tables_number   1
_chemical_formula_structural   MgS
_chemical_formula_sum   'Mg1 S1'
_cell_volume   34.9758590264
_cell_formula_units_Z   1
loop_
 _symmetry_equiv_pos_site_id
 _symmetry_equiv_pos_as_xyz
  1  'x, y, z'
loop_
 _atom_site_type_symbol
 _atom_site_label
 _atom_site_symmetry_multiplicity
 _atom_site_fract_x
 _atom_site_fract_y
 _atom_site_fract_z
 _atom_site_occupancy
  Mg  Mg1  1  0.000000  0.000000  0.000000  1
  S  S2  1  0.500000  0.500000  0.500000  1
