# AlkaliHalides CsCl_CSCL generated from the CsCl.cP2 prototype (CSCL) using a = 4.123 A
data_CsCl
_symmetry_space_group_name_H-M   'P 1'
_cell_length_a   4.12300000
_cell_length_b   4.12300000
_cell_length_c   4.12300000
_cell_angle_alpha   90.00000000
_cell_angle_beta   90.00000000
_cell_angle_gamma   90.00000000
_symmetry_Int_Tables_number   1
_chemical_formula_structural   CsCl
_chemical_formula_sum   'Cs1 Cl1'
_cell_volume   70.087408867
_cell_formula_units_Z   1
loop_
 _symmetry_equiv_pos_site_id
 _symmetry_equiv_pos_as_xyz
  1  'x, y, z'
loop_
 _atom_site_type_symbol
 _atom_site_label
 _atom_site_symmetry_multiplicity
 _atom_site_fract_x
 _atom_site_fract_y
 _atom_site_fract_z
 _atom_site_occupancy
  Cs  Cs1  1  0.000000  0.000000  0.000000  1
  Cl  Cl2  1  0.500000  0.500000  0.500000  1
