# AlkaliHalides CsF_RS generated from the NaCl.cF8 prototype (RS) using a = 6.008 A
data_CsF
_symmetry_space_group_name_H-M   'P 1'
_cell_length_a   4.24829754
_cell_length_b   4.24829754
_cell_length_c   4.24829754
_cell_angle_alpha   60.00000000
_cell_angle_beta   60.00000000
_cell_angle_gamma   60.00000000
_symmetry_Int_Tables_number   1
_chemical_formula_structural   CsF
_chemical_formula_sum   'Cs1 F1'
_cell_volume   54.216288128
_cell_formula_units_Z   1
loop_
 _symmetry_equiv_pos_site_id
 _symmetry_equiv_pos_as_xyz
  1  'x, y, z'
loop_
 _atom_site_type_symbol
 _atom_site_label
 _atom_site_symmetry_multiplicity
 _atom_site_fract_x
 _atom_site_fract_y
 _atom_site_fract_z
 _atom_site_occupancy
  Cs  Cs1  1  0.000000  0.000000  0.000000  1
  F  F2  1  0.500000  0.500000  0.500000  1
