# AlkaliHalides RbBr_RS generated from the NaCl.cF8 prototype (RS) using a = 6.854 A
data_RbBr
_symmetry_space_group_name_H-M   'P 1'
_cell_length_a   4.84650988
_cell_length_b   4.84650988
_cell_length_c   4.84650988
_cell_angle_alpha   60.00000000
_cell_angle_beta   60.00000000
_cell_angle_gamma   60.00000000
_symmetry_Int_Tables_number   1
_chemical_formula_structural   RbBr
_chemical_formula_sum   'Rb1 Br1'
_cell_volume   80.495630966
_cell_formula_units_Z   1
loop_
 _symmetry_equiv_pos_site_id
 _symmetry_equiv_pos_as_xyz
  1  'x, y, z'
loop_
 _atom_site_type_symbol
 _atom_site_label
 _atom_site_symmetry_multiplicity
 _atom_site_fract_x
 _atom_site_fract_y
 _atom_site_fract_z
 _atom_site_occupancy
  Rb  Rb1  1  0.000000  0.000000  0.000000  1
  Br  Br2  1  0.500000  0.500000  0.500000  1
